LTspice 24.0.12 for Windows
Circuit: * C:\Users\Maneesh kumar\OneDrive\Documents\2KW Boost converter.asc
Start Time: Mon Oct  7 15:39:36 2024
solver = Normal
Maximum thread count: 16
tnom = 27
temp = 27
method = modified trap
gmin = 1e-07
abstol = 1e-07
reltol = 0.01
chgtol = 1e-09
Direct Newton iteration for .op point succeeded.
Total elapsed time: 80.730 seconds.

